# created with PyMOL 2.5.5
@<TRIPOS>MOLECULE
gerger
53 52 1                 
SMALL
USER_CHARGES
@<TRIPOS>ATOM
1	 C01	46.171	42.889	48.078	c2	784	GGC	0.000	
2	 C02	44.123	46.122	50.533	c2	784	GGC	1.000	
3	 C03	43.979	46.671	49.156	c2	784	GGC	0.000	
4	 C04	43.184	47.692	48.782	c2	784	GGC	0.000	
5	 C05	43.133	48.141	47.331	c3	784	GGC	0.000	
6	 C06	41.777	47.937	46.639	c3	784	GGC	0.000	
7	 C07	41.398	46.487	46.493	c2	784	GGC	0.000	
8	 C08	41.509	45.706	45.399	c2	784	GGC	0.000	
9	 C09	41.034	44.262	45.440	c3	784	GGC	0.000	
10	 C10	42.162	43.216	45.489	c3	784	GGC	0.000	
11	 C11	42.878	43.192	46.815	c2	784	GGC	0.000	
12	 C12	43.134	42.136	47.614	c2	784	GGC	0.000	
13	 C13	43.849	42.348	48.940	c3	784	GGC	0.000	
14	 C14	45.337	41.968	48.930	c3	784	GGC	0.000	
15	 C15	47.028	43.846	48.484	c2	784	GGC	0.000	
16	 C16	47.302	44.217	49.915	c3	784	GGC	0.000	
17	 C17	47.797	44.661	47.476	c3	784	GGC	0.000	
18	 C18	42.744	40.712	47.326	c3	784	GGC	0.000	
19	 C19	42.069	46.158	44.077	c3	784	GGC	0.000	
20	 C20	42.336	48.485	49.740	c3	784	GGC	0.000	
21	 H04	44.575	46.200	48.374	ha	784	GGC	0.000	
22	 H09	40.983	46.010	47.381	ha	784	GGC	0.000	
23	 H14	43.236	44.156	47.176	ha	784	GGC	0.000	
24	 H01	46.048	42.726	47.007	ha	784	GGC	0.000	
25	 H02	44.848	46.690	51.121	ha	784	GGC	0.000	
26	 H03	43.173	46.028	51.063	ha	784	GGC	0.000	
27	 H05	43.387	49.208	47.296	hc	784	GGC	0.000	
28	 H06	43.911	47.633	46.745	hc	784	GGC	0.000	
29	 H07	41.801	48.437	45.665	hc	784	GGC	0.000	
30	 H08	40.982	48.446	47.198	hc	784	GGC	0.000	
31	 H10	40.423	44.080	44.546	hc	784	GGC	0.000	
32	 H11	40.358	44.103	46.292	hc	784	GGC	0.000	
33	 H12	42.898	43.410	44.701	hc	784	GGC	0.000	
34	 H13	41.716	42.244	45.261	hc	784	GGC	0.000	
35	 H15	43.337	41.754	49.708	hc	784	GGC	0.000	
36	 H16	43.745	43.391	49.267	hc	784	GGC	0.000	
37	 H17	45.468	40.944	48.558	hc	784	GGC	0.000	
38	 H18	45.701	41.949	49.962	ha	784	GGC	0.000	
39	 H19	46.625	43.736	50.625	hc	784	GGC	0.000	
40	 H20	48.326	43.942	50.185	hc	784	GGC	0.000	
41	 H21	47.189	45.297	50.052	hc	784	GGC	0.000	
42	 H22	48.874	44.545	47.638	hc	784	GGC	0.000	
43	 H23	47.582	44.360	46.446	hc	784	GGC	0.000	
44	 H24	47.542	45.722	47.573	hc	784	GGC	0.000	
45	 H25	43.629	40.068	47.325	hc	784	GGC	0.000	
46	 H26	42.055	40.349	48.096	hc	784	GGC	0.000	
47	 H27	42.255	40.578	46.360	hc	784	GGC	0.000	
48	 H28	42.909	45.524	43.778	hc	784	GGC	0.000	
49	 H29	41.298	46.097	43.302	hc	784	GGC	0.000	
50	 H30	42.442	47.185	44.091	hc	784	GGC	0.000	
51	 H31	41.275	48.282	49.572	hc	784	GGC	0.000	
52	 H32	42.556	48.260	50.788	hc	784	GGC     0.000	
53	 H33	42.511	49.557	49.602	hc	784	GGC	0.000	
@<TRIPOS>BOND
1 1 14 1
2 1 15 1
3 1 24 1
4 2 3 1
5 2 25 1
6 2 26 1
7 3 4 2
8 3 21 1
9 4 5 1
10 4 20 1
11 5 6 1
12 5 27 1
13 5 28 1
14 6 7 1
15 6 29 1
16 6 30 1
17 7 8 2
18 7 22 1
19 8 9 1
20 8 19 1
21 9 10 1
22 9 31 1
23 9 32 1
24 10 11 1
25 10 33 1
26 10 34 1
27 11 23 1
28 11 12 2
29 12 13 1
30 12 18 1
31 13 14 1
32 13 35 1
33 13 36 1
34 14 37 1
35 14 38 1
36 15 16 1
37 15 17 1
38 16 39 1
39 16 40 1
40 16 41 1
41 17 42 1
42 17 43 1
43 17 44 1
44 18 45 1
45 18 46 1
46 18 47 1
47 19 48 1
48 19 49 1
49 19 50 1
50 20 51 1
51 20 52 1
52 20 53 1
@<TRIPOS>SUBSTRUCTURE
1	GGC	1	GROUP	1 ****	GGC
